58
Created with the Wolfram Language : www.wolfram.com
N	  -1.947400	  -0.197400	   0.236300
N	  -0.065900	  -2.617500	   0.853000
N	  -2.427100	  -2.598500	   0.481700
N	  -2.244500	   2.237400	   0.340500
N	   2.309700	  -2.564600	   0.744700
N	   0.087200	   1.762800	   0.140800
N	   1.992300	  -0.325500	  -0.081400
N	   2.391600	   1.992700	  -0.481300
C	  -4.000800	  -0.805700	   0.956300
C	  -0.674800	  -3.547500	  -1.046400
C	  -3.948700	   0.601500	   0.912500
C	   0.751000	  -3.535200	  -0.972500
C	  -2.688000	  -1.333100	   0.525000
C	  -1.172100	  -2.916600	   0.071600
C	  -2.600700	   1.002400	   0.456500
C	   1.117400	  -2.899300	   0.191900
C	  -0.646900	   3.745800	  -0.743800
C	   3.914800	  -0.777600	   1.132600
C	   0.716900	   3.686700	  -0.979800
C	   3.924200	   0.561900	   0.782000
C	  -0.963600	   2.508400	  -0.053000
C	   2.678100	  -1.332100	   0.592400
C	  -5.137900	  -1.477700	   1.352900
C	  -1.419100	  -4.069200	  -2.099200
C	   1.170800	   2.414900	  -0.428600
C	   2.693300	   0.766400	   0.039300
C	  -5.031800	   1.379100	   1.264500
C	   1.609800	  -4.044100	  -1.940900
C	  -6.243500	  -0.700300	   1.711400
C	  -0.565100	  -4.601800	  -3.091800
C	  -6.191100	   0.709500	   1.667600
C	   0.872900	  -4.589900	  -3.016600
C	  -1.416600	   4.817000	  -1.139900
C	   4.936300	  -1.350400	   1.858800
C	   1.391300	   4.698100	  -1.628400
C	   4.953100	   1.407600	   1.133300
C	  -0.755400	   5.857400	  -1.799100
C	   5.994300	  -0.514600	   2.228600
C	   0.634000	   5.798700	  -2.040800
C	   6.002600	   0.850300	   1.869500
H	  -0.990200	  -0.235600	  -0.095700
H	  -0.116000	  -2.151600	   1.747500
H	  -5.184600	  -2.559600	   1.389200
H	  -2.496800	  -4.077100	  -2.176900
H	  -4.997800	   2.461700	   1.234400
H	   2.689600	  -4.034200	  -1.905500
H	  -7.161200	  -1.188100	   2.030200
H	  -1.020800	  -5.047100	  -3.976400
H	  -7.069400	   1.282700	   1.953800
H	   1.425600	  -5.027000	  -3.848300
H	  -2.483000	   4.861400	  -0.955000
H	   4.929600	  -2.397800	   2.135400
H	   2.457300	   4.652200	  -1.815600
H	   4.958600	   2.455400	   0.858200
H	  -1.317600	   6.726100	  -2.132200
H	   6.824200	  -0.919600	   2.802000
H	   1.120200	   6.622800	  -2.556500
H	   6.838900	   1.475500	   2.171600
